 # Positions of grains centers of mass
 CRYSTAL
 PRIMVEC
    100.00000000        0.00000000        0.00000000
      0.00000000      100.00000000        0.00000000
      0.00000000        0.00000000      100.00000000
 CONVVEC
    100.00000000        0.00000000        0.00000000
      0.00000000      100.00000000        0.00000000
      0.00000000        0.00000000      100.00000000
 PRIMCOORD
       10 1
1       65.16884635       73.54573623       61.96251839
1       64.31813705       68.95633645       62.19508361
1       65.01202531       71.72300555       62.00596961
1       64.66852017       71.85383713       62.69539269
1       64.30594528       69.67994329       61.58145399
1       64.93256912       71.57474024       62.58252647
1       64.42203110       66.44206909       61.05902407
1       65.17214188       71.71178459       61.49396298
1       65.12288012       73.46109642       61.95522029
1       65.23561407       74.01262546       63.22980116
