 # Positions of nodes
 CRYSTAL
 PRIMVEC
    100.00000000        0.00000000        0.00000000
      0.00000000      100.00000000        0.00000000
      0.00000000        0.00000000      100.00000000
 CONVVEC
    100.00000000        0.00000000        0.00000000
      0.00000000      100.00000000        0.00000000
      0.00000000        0.00000000      100.00000000
 PRIMCOORD
       10 1
1       36.99651149       98.92284898       60.89516891
1        4.93114096       43.41830461        0.85893736
1        6.59134525       61.39082210       98.21629387
1       20.42935153       40.43210450       47.05518578
1       68.90990345       24.62071925       44.19804270
1       86.02417032       98.90089568       62.06356775
1       44.97290869       69.24679017       65.03875161
1       16.43437493       58.12699113        5.89284368
1       69.30183040       79.63233526       38.66991992
1       63.85513224        3.32410461       50.52507255
