 # Positions of grains centers of mass
 CRYSTAL
 PRIMVEC
    100.00000000        0.00000000        0.00000000
      0.00000000      100.00000000        0.00000000
      0.00000000        0.00000000      100.00000000
 CONVVEC
    100.00000000        0.00000000        0.00000000
      0.00000000      100.00000000        0.00000000
      0.00000000        0.00000000      100.00000000
 PRIMCOORD
       10 1
1       28.31840713       50.84078608       26.12115204
1       28.62583191       49.43868034       26.40952373
1       30.34443649       50.14863709       24.56534743
1       28.30977721       50.91765120       26.13536631
1       28.54881499       49.77674880       26.33592080
1       28.35112808       49.49188825       25.93490287
1       28.19578354       50.25134143       25.55991209
1       28.82872208       49.36738009       24.91300961
1       28.55954759       49.71062693       26.34350801
1       30.11308399       41.28981185       21.55358751
