 # Positions of nodes
 CRYSTAL
 PRIMVEC
    100.00000000        0.00000000        0.00000000
      0.00000000      100.00000000        0.00000000
      0.00000000        0.00000000      100.00000000
 CONVVEC
    100.00000000        0.00000000        0.00000000
      0.00000000      100.00000000        0.00000000
      0.00000000        0.00000000      100.00000000
 PRIMCOORD
       10 1
1       69.54074907        3.72579143       81.53285205
1       94.00212126       30.86970042       21.18530005
1       11.84982918       59.68989355       90.41670978
1        3.76704822       24.17972879       54.07822442
1       83.33450948       33.27762543        3.87008782
1       61.92510747       15.19436409       94.27194381
1       11.54624698       51.37487401        7.69202391
1        4.50261735       98.36858269       95.45373851
1       27.04920445       46.00421313       17.95774077
1        4.64697519       85.74378601       41.62120728
